SPU124_glm/OH_Line_Configuration_SPU124.glm
//**Overhead  Line configuration forSPU124:


object line_configuration {
	 name overhead_line_config_ABCN_14_14;
	 z11 0.320000+0.327333j;
	 z12 0.140000-0.002667j;
	 z13 0.140000-0.002667j;
	 z21 0.140000-0.002667j;
	 z22 0.320000+0.327333j;
	 z23 0.140000-0.002667j;
	 z31 0.140000-0.002667j;
	 z32 0.140000-0.002667j;
	 z33 0.320000+0.327333j;
	 }

object line_configuration {
	 name overhead_line_config_ABCN_40_62;
	 z11 0.465000+1.182067j;
	 z12 0.160000+0.505967j;
	 z13 0.160000+0.505967j;
	 z21 0.160000+0.505967j;
	 z22 0.465000+1.182067j;
	 z23 0.160000+0.505967j;
	 z31 0.160000+0.505967j;
	 z32 0.160000+0.505967j;
	 z33 0.465000+1.182067j;
	 }

object line_configuration {
	 name overhead_line_config_ABCN_40_94;
	 z11 0.345667+1.151733j;
	 z12 0.159667+0.506133j;
	 z13 0.159667+0.506133j;
	 z21 0.159667+0.506133j;
	 z22 0.345667+1.151733j;
	 z23 0.159667+0.506133j;
	 z31 0.159667+0.506133j;
	 z32 0.159667+0.506133j;
	 z33 0.345667+1.151733j;
	 }

object line_configuration {
	 name overhead_line_config_ABCN_83_83;
	 z11 2.660000+1.500000j;
	 z12 0.201000+0.637500j;
	 z13 0.201000+0.637500j;
	 z21 0.201000+0.637500j;
	 z22 2.660000+1.500000j;
	 z23 0.201000+0.637500j;
	 z31 0.201000+0.637500j;
	 z32 0.201000+0.637500j;
	 z33 2.660000+1.500000j;
	 }

object line_configuration {
	 name overhead_line_config_ABCN_94_94;
	 z11 0.345667+1.151733j;
	 z12 0.159667+0.506133j;
	 z13 0.159667+0.506133j;
	 z21 0.159667+0.506133j;
	 z22 0.345667+1.151733j;
	 z23 0.159667+0.506133j;
	 z31 0.159667+0.506133j;
	 z32 0.159667+0.506133j;
	 z33 0.345667+1.151733j;
	 }

object line_configuration {
	 name overhead_line_config_ABC_2_2;
	 z11 1.207667+1.391067j;
	 z12 0.173667+0.526967j;
	 z13 0.173667+0.526967j;
	 z21 0.173667+0.526967j;
	 z22 1.207667+1.391067j;
	 z23 0.173667+0.526967j;
	 z31 0.173667+0.526967j;
	 z32 0.173667+0.526967j;
	 z33 1.207667+1.391067j;
	 }

object line_configuration {
	 name overhead_line_config_ABC_83_83;
	 z11 2.660000+1.500000j;
	 z12 0.201000+0.637500j;
	 z13 0.201000+0.637500j;
	 z21 0.201000+0.637500j;
	 z22 2.660000+1.500000j;
	 z23 0.201000+0.637500j;
	 z31 0.201000+0.637500j;
	 z32 0.201000+0.637500j;
	 z33 2.660000+1.500000j;
	 }

