SPU124_glm/UG_Line_Configuration_SPU124.glm
//**Underground Line configuration forSPU124:


object line_configuration {
	 name underground_line_config_AN_108_108;
	 z11 0.406667+0.301667j;
	 z12 0.136667-0.024333j;
	 z13 0.136667-0.024333j;
	 z21 0.136667-0.024333j;
	 z22 0.406667+0.301667j;
	 z23 0.136667-0.024333j;
	 z31 0.136667-0.024333j;
	 z32 0.136667-0.024333j;
	 z33 0.406667+0.301667j;
	 }

object line_configuration {
	 name underground_line_config_AN_14_14;
	 z11 0.320000+0.327333j;
	 z12 0.140000-0.002667j;
	 z13 0.140000-0.002667j;
	 z21 0.140000-0.002667j;
	 z22 0.320000+0.327333j;
	 z23 0.140000-0.002667j;
	 z31 0.140000-0.002667j;
	 z32 0.140000-0.002667j;
	 z33 0.320000+0.327333j;
	 }

object line_configuration {
	 name underground_line_config_AN_83_83;
	 z11 2.660000+1.500000j;
	 z12 0.201000+0.637500j;
	 z13 0.201000+0.637500j;
	 z21 0.201000+0.637500j;
	 z22 2.660000+1.500000j;
	 z23 0.201000+0.637500j;
	 z31 0.201000+0.637500j;
	 z32 0.201000+0.637500j;
	 z33 2.660000+1.500000j;
	 }

object line_configuration {
	 name underground_line_config_BN_108_108;
	 z11 0.406667+0.301667j;
	 z12 0.136667-0.024333j;
	 z13 0.136667-0.024333j;
	 z21 0.136667-0.024333j;
	 z22 0.406667+0.301667j;
	 z23 0.136667-0.024333j;
	 z31 0.136667-0.024333j;
	 z32 0.136667-0.024333j;
	 z33 0.406667+0.301667j;
	 }

object line_configuration {
	 name underground_line_config_BN_14_14;
	 z11 0.320000+0.327333j;
	 z12 0.140000-0.002667j;
	 z13 0.140000-0.002667j;
	 z21 0.140000-0.002667j;
	 z22 0.320000+0.327333j;
	 z23 0.140000-0.002667j;
	 z31 0.140000-0.002667j;
	 z32 0.140000-0.002667j;
	 z33 0.320000+0.327333j;
	 }

object line_configuration {
	 name underground_line_config_BN_83_83;
	 z11 2.660000+1.500000j;
	 z12 0.201000+0.637500j;
	 z13 0.201000+0.637500j;
	 z21 0.201000+0.637500j;
	 z22 2.660000+1.500000j;
	 z23 0.201000+0.637500j;
	 z31 0.201000+0.637500j;
	 z32 0.201000+0.637500j;
	 z33 2.660000+1.500000j;
	 }

object line_configuration {
	 name underground_line_config_CN_108_108;
	 z11 0.406667+0.301667j;
	 z12 0.136667-0.024333j;
	 z13 0.136667-0.024333j;
	 z21 0.136667-0.024333j;
	 z22 0.406667+0.301667j;
	 z23 0.136667-0.024333j;
	 z31 0.136667-0.024333j;
	 z32 0.136667-0.024333j;
	 z33 0.406667+0.301667j;
	 }

object line_configuration {
	 name underground_line_config_CN_14_14;
	 z11 0.320000+0.327333j;
	 z12 0.140000-0.002667j;
	 z13 0.140000-0.002667j;
	 z21 0.140000-0.002667j;
	 z22 0.320000+0.327333j;
	 z23 0.140000-0.002667j;
	 z31 0.140000-0.002667j;
	 z32 0.140000-0.002667j;
	 z33 0.320000+0.327333j;
	 }

object line_configuration {
	 name underground_line_config_CN_83_83;
	 z11 2.660000+1.500000j;
	 z12 0.201000+0.637500j;
	 z13 0.201000+0.637500j;
	 z21 0.201000+0.637500j;
	 z22 2.660000+1.500000j;
	 z23 0.201000+0.637500j;
	 z31 0.201000+0.637500j;
	 z32 0.201000+0.637500j;
	 z33 2.660000+1.500000j;
	 }

